-------------------------------------------------------
          Amber 20 PMEMD                              2020
          -------------------------------------------------------

  [-O]verwriting output

File Assignments:

 Here is the input file:

 MD simualation
&cntrl
 imin=0,           ! 1=run minimzation, 0=run MD
 nstlim=20000      ! Number of MD steps
 ntb=2,            ! 2=Constant Pressure, default when ntp>0. Unit cell size ch
 igb=0,            ! 1,2,5,8=implicit solvent
 ntc=1,            ! 2=SHAKE on for bonds with hydrogen (SHAKE restricts bond s
 dt=0.001,         ! Timestep (ps)
 ntp=1,            ! 1=Isotropic pressure scaling (0=no scaling) (should be 1 o
 barostat=2        ! 1=Berendsen barostat, 2=montecarlo thermostat, p347 of 202
 taup=0.5          ! Pressure relaxtion time (ps)
 ntf=1,            ! 2=No force evaluation for bonds with hydrogen (1=complete
 ntt=3,            ! Langevin thermostat (0=constant total energy, see p344 of
 gamma_ln=2.0      ! Collision Frequency for thermostat
 ig=-1,            ! Random seed for thermostat
 temp0=310         ! Simulation temperature (K)
 ntwx= 10000,        ! Write to trajectory file every ntwx steps
 ntpr= 1000,        ! Print to mdout every ntpr steps
 ntwr= 10000,        ! Write a restart file every ntwr steps
 cut=8,          ! Nonbonded cutoff in Angstroms
 ntr=1,            ! Turn on restraints
 restraintmask=":1-522 & !@H=", ! atoms to be restrained (all in BRD4 but not H
 restraint_wt=1, ! force constant for restraint
 ntxo=2,           ! 1=Write coordinate file in ASCII format, 2=NetCDF
 ioutfm=1,         ! 0=Write trajectory file in ASCII format, 1=NetCDF
 nmropt=1,         !
/
&wt type='END'
/

Note: ig = -1. Setting random seed to   109556 based on wallclock time in
      microseconds.

--------------------------------------------------------------------------------
   1.  RESOURCE   USE:
--------------------------------------------------------------------------------

 getting box info from netcdf restart file
 NATOM  =   57192 NTYPES =      31 NBONH =   40760 MBONA  =   16521
 NTHETH =    9451 MTHETA =    5832 NPHIH =   19281 MPHIA  =   18310
 NHPARM =       0 NPARM  =       0 NNB   =  131671 NRES   =   12727
 NBONA  =   16521 NTHETA =    5832 NPHIA =   18310 NUMBND =      90
 NUMANG =     202 NPTRA  =     203 NATYP =      51 NPHB   =       1
 IFBOX  =       2 NMXRS  =      43 IFCAP =       0 NEXTRA =   12203
 NCOPY  =       0

     BOX TYPE: TRUNCATED OCTAHEDRON

--------------------------------------------------------------------------------
   2.  CONTROL  DATA  FOR  THE  RUN
--------------------------------------------------------------------------------

default_name

General flags:
     imin    =       0, nmropt  =       1

Nature and format of input:
     ntx     =       1, irest   =       0, ntrx    =       1

Nature and format of output:
     ntxo    =       2, ntpr    =    1000, ntrx    =       1, ntwr    =   10000
     iwrap   =       0, ntwx    =   10000, ntwv    =       0, ntwe    =       0
     ioutfm  =       1, ntwprt  =       0, idecomp =       0, rbornstat=      0

Potential function:
     ntf     =       1, ntb     =       2, igb     =       0, nsnb    =      25
     ipol    =       0, gbsa    =       0, iesp    =       0
     dielc   =   1.00000, cut     =   8.00000, intdiel =   1.00000

Frozen or restrained atoms:
     ibelly  =       0, ntr     =       1
     restraint_wt =   1.00000

Molecular dynamics:
     nstlim  =     20000, nscm    =         0, nrespa  =         1
     t       =   0.00000, dt      =   0.00100, vlimit  =  -1.00000

Langevin dynamics temperature regulation:
     ig      =  109556
     temp0   = 310.00000, tempi   =   0.00000, gamma_ln=   2.00000

Pressure regulation:
     ntp     =       1
     pres0   =   1.00000, comp    =  44.60000, taup    =   0.50000
     Monte-Carlo Barostat:
     mcbarint  =     100

NMR refinement options:
     iscale  =       0, noeskp  =       1, ipnlty  =       1, mxsub   =       1
     scalm   = 100.00000, pencut  =   0.10000, tausw   =   0.10000

Extra-points options:
     frameon =       1, chngmask=       1

Ewald parameters:
     verbose =       0, ew_type =       0, nbflag  =       1, use_pme =       1
     vdwmeth =       1, eedmeth =       1, netfrc  =       1
     Box X =   83.359   Box Y =   83.359   Box Z =   83.359
     Alpha =  109.471   Beta  =  109.471   Gamma =  109.471
     NFFT1 =   84       NFFT2 =   84       NFFT3 =   84
     Cutoff=    8.000   Tol   =0.100E-04
     Ewald Coefficient =  0.34864
     Interpolation order =    4

    LOADING THE CONSTRAINED ATOMS AS GROUPS

   5.  REFERENCE ATOM COORDINATES

  default_name
     Mask :1-522 & !@H=; matches  4227 atoms

--------------------------------------------------------------------------------
   3.  ATOMIC COORDINATES AND VELOCITIES
--------------------------------------------------------------------------------

default_name
 begin time read from input coords =    20.000 ps

           Begin reading energy term weight changes/NMR restraints
 WEIGHT CHANGES:
                         ** No weight changes given **

 RESTRAINTS:
                          ** No restraint defined **

                  Done reading weight changes/NMR restraints

 Number of triangulated 3-point waters found:    12203

     Sum of charges from parm topology file =  -0.00193226
     Forcing neutrality...

--------------------------------------------------------------------------------
   4.  RESULTS
 NSTEP =        0   TIME(PS) =       0.000  TEMP(K) =     0.00  PRESS =     0.0
 Etot   =   -197648.0668  EKtot   =         0.0000  EPtot      =   -197648.0668
 BOND   =     56702.8305  ANGLE   =      4261.2785  DIHED      =      2924.5547
 UB     =         0.0000  IMP     =         0.0000  CMAP       =       419.1065
 1-4 NB =      1854.6870  1-4 EEL =     19650.5787  VDWAALS    =     45091.3994
 EELEC  =   -328552.5020  EHBOND  =         0.0000  RESTRAINT  =         0.0000
 EKCMT  =         0.0000  VIRIAL  =         0.0000  VOLUME     =    445895.3030
                                                    Density    =         1.0426
 ------------------------------------------------------------------------------

      A V E R A G E S   O V E R      20 S T E P S

 NSTEP =    20000   TIME(PS) =      20.000  TEMP(K) =   308.80  PRESS =     0.0
 Etot   =   -157003.2367  EKtot   =     41411.0002  EPtot      =   -198414.2369
 BOND   =     57086.2754  ANGLE   =      4381.7401  DIHED      =      2980.4445
 UB     =         0.0000  IMP     =         0.0000  CMAP       =       418.6134
 1-4 NB =      1888.3970  1-4 EEL =     19658.0255  VDWAALS    =     46260.2754
 EELEC  =   -331553.0110  EHBOND  =         0.0000  RESTRAINT  =       465.0029
 EAMBER (non-restraint)  =   -198879.2398
 EKCMT  =         0.0000  VIRIAL  =         0.0000  VOLUME     =    441277.8062
                                                    Density    =         1.0536
 ------------------------------------------------------------------------------

      R M S  F L U C T U A T I O N S

 NSTEP =    20000   TIME(PS) =      20.000  TEMP(K) =     4.56  PRESS =     0.0
 Etot   =      1358.4788  EKtot   =       611.2803  EPtot      =       783.5054
 BOND   =       337.9251  ANGLE   =        73.8886  DIHED      =        25.7987
 UB     =         0.0000  IMP     =         0.0000  CMAP       =         9.9106
 1-4 NB =        20.7529  1-4 EEL =        49.2694  VDWAALS    =       397.7514
 EELEC  =       981.6442  EHBOND  =         0.0000  RESTRAINT  =        17.8172
 EAMBER (non-restraint)  =       765.6882
 EKCMT  =         0.0000  VIRIAL  =         0.0000  VOLUME     =      1504.5836
                                                    Density    =         0.0036
 ------------------------------------------------------------------------------
