-------------------------------------------------------
          Amber 20 PMEMD                              2020
          -------------------------------------------------------

  [-O]verwriting output

File Assignments:

 Here is the input file:

 MD simualation
&cntrl
 imin=0,           ! 1=run minimzation, 0=run MD
 nstlim=20000      ! Number of MD steps
 ntb=2,            ! 2=Constant Pressure, default when ntp>0. Unit cell size ch
 igb=0,            ! 1,2,5,8=implicit solvent
 ntc=1,            ! 2=SHAKE on for bonds with hydrogen (SHAKE restricts bond s
 dt=0.001,         ! Timestep (ps)
 ntp=1,            ! 1=Isotropic pressure scaling (0=no scaling) (should be 1 o
 barostat=2        ! 1=Berendsen barostat, 2=montecarlo thermostat, p347 of 202
 taup=0.5          ! Pressure relaxtion time (ps)
 ntf=1,            ! 2=No force evaluation for bonds with hydrogen (1=complete
 ntt=3,            ! Langevin thermostat (0=constant total energy, see p344 of
 gamma_ln=2.0      ! Collision Frequency for thermostat
 ig=-1,            ! Random seed for thermostat
 temp0=310         ! Simulation temperature (K)
 ntwx= 10000,        ! Write to trajectory file every ntwx steps
 ntpr= 1000,        ! Print to mdout every ntpr steps
 ntwr= 10000,        ! Write a restart file every ntwr steps
 cut=8,          ! Nonbonded cutoff in Angstroms
 ntr=1,            ! Turn on restraints
 restraintmask=":1-522 & !@H=", ! atoms to be restrained
 restraint_wt=1, ! force constant for restraint
 ntxo=2,           ! 1=Write coordinate file in ASCII format, 2=NetCDF
 ioutfm=1,         ! 0=Write trajectory file in ASCII format, 1=NetCDF
 nmropt=0,         !
/
&wt type='END' /
DISANG=zinc.rst
LISTOUT=POUT

Note: ig = -1. Setting random seed to   546576 based on wallclock time in
      microseconds.

--------------------------------------------------------------------------------
   1.  RESOURCE   USE:
--------------------------------------------------------------------------------

 getting box info from netcdf restart file
 NATOM  =   57192 NTYPES =      34 NBONH =   40755 MBONA  =   16528
 NTHETH =    9475 MTHETA =    5853 NPHIH =   19321 MPHIA  =   18364
 NHPARM =       0 NPARM  =       0 NNB   =  131766 NRES   =   12722
 NBONA  =   16528 NTHETA =    5853 NPHIA =   18364 NUMBND =     100
 NUMANG =     217 NPTRA  =     210 NATYP =      57 NPHB   =       1
 IFBOX  =       2 NMXRS  =      63 IFCAP =       0 NEXTRA =   12198
 NCOPY  =       0

     BOX TYPE: TRUNCATED OCTAHEDRON

--------------------------------------------------------------------------------
   2.  CONTROL  DATA  FOR  THE  RUN
--------------------------------------------------------------------------------

default_name

General flags:
     imin    =       0, nmropt  =       0

Nature and format of input:
     ntx     =       1, irest   =       0, ntrx    =       1

Nature and format of output:
     ntxo    =       2, ntpr    =    1000, ntrx    =       1, ntwr    =   10000
     iwrap   =       0, ntwx    =   10000, ntwv    =       0, ntwe    =       0
     ioutfm  =       1, ntwprt  =       0, idecomp =       0, rbornstat=      0

Potential function:
     ntf     =       1, ntb     =       2, igb     =       0, nsnb    =      25
     ipol    =       0, gbsa    =       0, iesp    =       0
     dielc   =   1.00000, cut     =   8.00000, intdiel =   1.00000

Frozen or restrained atoms:
     ibelly  =       0, ntr     =       1
     restraint_wt =   1.00000

Molecular dynamics:
     nstlim  =     20000, nscm    =         0, nrespa  =         1
     t       =   0.00000, dt      =   0.00100, vlimit  =  -1.00000

Langevin dynamics temperature regulation:
     ig      =  546576
     temp0   = 310.00000, tempi   =   0.00000, gamma_ln=   2.00000

Pressure regulation:
     ntp     =       1
     pres0   =   1.00000, comp    =  44.60000, taup    =   0.50000
     Monte-Carlo Barostat:
     mcbarint  =     100

Extra-points options:
     frameon =       1, chngmask=       1

Ewald parameters:
     verbose =       0, ew_type =       0, nbflag  =       1, use_pme =       1
     vdwmeth =       1, eedmeth =       1, netfrc  =       1
     Box X =   83.294   Box Y =   83.294   Box Z =   83.294
     Alpha =  109.471   Beta  =  109.471   Gamma =  109.471
     NFFT1 =   84       NFFT2 =   84       NFFT3 =   84
     Cutoff=    8.000   Tol   =0.100E-04
     Ewald Coefficient =  0.34864
     Interpolation order =    4

    LOADING THE CONSTRAINED ATOMS AS GROUPS

   5.  REFERENCE ATOM COORDINATES

  default_name
     Mask :1-522 & !@H=; matches  4237 atoms

--------------------------------------------------------------------------------
   3.  ATOMIC COORDINATES AND VELOCITIES
--------------------------------------------------------------------------------

default_name
 begin time read from input coords =    20.000 ps

 Number of triangulated 3-point waters found:    12198

     Sum of charges from parm topology file =  -0.00093329
     Forcing neutrality...

--------------------------------------------------------------------------------
   4.  RESULTS
 NSTEP =        0   TIME(PS) =       0.000  TEMP(K) =     0.00  PRESS =     0.0
 Etot   =   -196829.6773  EKtot   =         0.0000  EPtot      =   -196829.6773
 BOND   =     56453.7140  ANGLE   =      4432.8643  DIHED      =      3082.9313
 UB     =         0.0000  IMP     =         0.0000  CMAP       =       463.9198
 1-4 NB =      1884.0558  1-4 EEL =     19636.0269  VDWAALS    =     45499.4029
 EELEC  =   -328282.5921  EHBOND  =         0.0000  RESTRAINT  =         0.0000
 EKCMT  =         0.0000  VIRIAL  =         0.0000  VOLUME     =    444857.4130
                                                    Density    =         1.0452
 ------------------------------------------------------------------------------

      A V E R A G E S   O V E R      20 S T E P S

 NSTEP =    20000   TIME(PS) =      20.000  TEMP(K) =   308.84  PRESS =     0.0
 Etot   =   -156481.3223  EKtot   =     41420.6334  EPtot      =   -197901.9557
 BOND   =     57031.5102  ANGLE   =      4375.4108  DIHED      =      3116.8717
 UB     =         0.0000  IMP     =         0.0000  CMAP       =       464.4842
 1-4 NB =      1911.7745  1-4 EEL =     19657.2174  VDWAALS    =     46261.0265
 EELEC  =   -331242.9312  EHBOND  =         0.0000  RESTRAINT  =       522.6803
 EAMBER (non-restraint)  =   -198424.6360
 EKCMT  =         0.0000  VIRIAL  =         0.0000  VOLUME     =    440639.9442
                                                    Density    =         1.0552
 ------------------------------------------------------------------------------

      R M S  F L U C T U A T I O N S

 NSTEP =    20000   TIME(PS) =      20.000  TEMP(K) =     4.90  PRESS =     0.0
 Etot   =      1279.1068  EKtot   =       657.6091  EPtot      =       688.9563
 BOND   =       326.2374  ANGLE   =        59.7593  DIHED      =        28.7856
 UB     =         0.0000  IMP     =         0.0000  CMAP       =        10.4851
 1-4 NB =        16.0190  1-4 EEL =        37.5645  VDWAALS    =       382.7705
 EELEC  =      1050.0677  EHBOND  =         0.0000  RESTRAINT  =        21.4070
 EAMBER (non-restraint)  =       667.5493
 EKCMT  =         0.0000  VIRIAL  =         0.0000  VOLUME     =      1597.5718
                                                    Density    =         0.0038
 ------------------------------------------------------------------------------
