-------------------------------------------------------
          Amber 20 PMEMD                              2020
          -------------------------------------------------------

  [-O]verwriting output

File Assignments:

 Here is the input file:

 MD simualation
&cntrl
 imin=0,           ! 1=run minimzation, 0=run MD
 nstlim=20000      ! Number of MD steps
 ntb=2,            ! 2=Constant Pressure, default when ntp>0. Unit cell size ch
 igb=0,            ! 1,2,5,8=implicit solvent
 ntc=1,            ! 2=SHAKE on for bonds with hydrogen (SHAKE restricts bond s
 dt=0.001,         ! Timestep (ps)
 ntp=1,            ! 1=Isotropic pressure scaling (0=no scaling) (should be 1 o
 barostat=2        ! 1=Berendsen barostat, 2=montecarlo thermostat, p347 of 202
 taup=0.5          ! Pressure relaxtion time (ps)
 ntf=1,            ! 2=No force evaluation for bonds with hydrogen (1=complete
 ntt=3,            ! Langevin thermostat (0=constant total energy, see p344 of
 gamma_ln=2.0      ! Collision Frequency for thermostat
 ig=-1,            ! Random seed for thermostat
 temp0=310         ! Simulation temperature (K)
 ntwx= 10000,        ! Write to trajectory file every ntwx steps
 ntpr= 1000,        ! Print to mdout every ntpr steps
 ntwr= 10000,        ! Write a restart file every ntwr steps
 cut=8,          ! Nonbonded cutoff in Angstroms
 ntr=1,            ! Turn on restraints
 restraintmask=":1-522 & !@H=", ! atoms to be restrained (all in BRD4 but not H
 restraint_wt=1, ! force constant for restraint
 ntxo=2,           ! 1=Write coordinate file in ASCII format, 2=NetCDF
 ioutfm=1,         ! 0=Write trajectory file in ASCII format, 1=NetCDF
 nmropt=1,         !
/
&wt type='END'
/

Note: ig = -1. Setting random seed to   879986 based on wallclock time in
      microseconds.

--------------------------------------------------------------------------------
   1.  RESOURCE   USE:
--------------------------------------------------------------------------------

 getting box info from netcdf restart file
 NATOM  =   64645 NTYPES =      33 NBONH =   46341 MBONA  =   18395
 NTHETH =    9475 MTHETA =    5859 NPHIH =   19325 MPHIA  =   18379
 NHPARM =       0 NPARM  =       0 NNB   =  144820 NRES   =   14585
 NBONA  =   18395 NTHETA =    5859 NPHIA =   18379 NUMBND =      98
 NUMANG =     214 NPTRA  =     208 NATYP =      56 NPHB   =       0
 IFBOX  =       2 NMXRS  =      67 IFCAP =       0 NEXTRA =   14060
 NCOPY  =       0

     BOX TYPE: TRUNCATED OCTAHEDRON

--------------------------------------------------------------------------------
   2.  CONTROL  DATA  FOR  THE  RUN
--------------------------------------------------------------------------------

default_name

General flags:
     imin    =       0, nmropt  =       1

Nature and format of input:
     ntx     =       1, irest   =       0, ntrx    =       1

Nature and format of output:
     ntxo    =       2, ntpr    =    1000, ntrx    =       1, ntwr    =   10000
     iwrap   =       0, ntwx    =   10000, ntwv    =       0, ntwe    =       0
     ioutfm  =       1, ntwprt  =       0, idecomp =       0, rbornstat=      0

Potential function:
     ntf     =       1, ntb     =       2, igb     =       0, nsnb    =      25
     ipol    =       0, gbsa    =       0, iesp    =       0
     dielc   =   1.00000, cut     =   8.00000, intdiel =   1.00000

Frozen or restrained atoms:
     ibelly  =       0, ntr     =       1
     restraint_wt =   1.00000

Molecular dynamics:
     nstlim  =     20000, nscm    =         0, nrespa  =         1
     t       =   0.00000, dt      =   0.00100, vlimit  =  -1.00000

Langevin dynamics temperature regulation:
     ig      =  879986
     temp0   = 310.00000, tempi   =   0.00000, gamma_ln=   2.00000

Pressure regulation:
     ntp     =       1
     pres0   =   1.00000, comp    =  44.60000, taup    =   0.50000
     Monte-Carlo Barostat:
     mcbarint  =     100

NMR refinement options:
     iscale  =       0, noeskp  =       1, ipnlty  =       1, mxsub   =       1
     scalm   = 100.00000, pencut  =   0.10000, tausw   =   0.10000

Extra-points options:
     frameon =       1, chngmask=       1

Ewald parameters:
     verbose =       0, ew_type =       0, nbflag  =       1, use_pme =       1
     vdwmeth =       1, eedmeth =       1, netfrc  =       1
     Box X =   86.499   Box Y =   86.499   Box Z =   86.499
     Alpha =  109.471   Beta  =  109.471   Gamma =  109.471
     NFFT1 =   96       NFFT2 =   96       NFFT3 =   96
     Cutoff=    8.000   Tol   =0.100E-04
     Ewald Coefficient =  0.34864
     Interpolation order =    4

    LOADING THE CONSTRAINED ATOMS AS GROUPS

   5.  REFERENCE ATOM COORDINATES

  default_name
     Mask :1-522 & !@H=; matches  4241 atoms

--------------------------------------------------------------------------------
   3.  ATOMIC COORDINATES AND VELOCITIES
--------------------------------------------------------------------------------

default_name
 begin time read from input coords =    20.000 ps

           Begin reading energy term weight changes/NMR restraints
 WEIGHT CHANGES:
                         ** No weight changes given **

 RESTRAINTS:
                          ** No restraint defined **

                  Done reading weight changes/NMR restraints

 Number of triangulated 3-point waters found:    14060

     Sum of charges from parm topology file =  -0.00092307
     Forcing neutrality...

--------------------------------------------------------------------------------
   4.  RESULTS
 NSTEP =        0   TIME(PS) =       0.000  TEMP(K) =     0.00  PRESS =     0.0
 Etot   =   -225435.8118  EKtot   =         0.0000  EPtot      =   -225435.8118
 BOND   =     64835.4269  ANGLE   =      4408.4245  DIHED      =      2986.8398
 UB     =         0.0000  IMP     =         0.0000  CMAP       =       412.9331
 1-4 NB =      1859.5449  1-4 EEL =     19588.3591  VDWAALS    =     52990.6840
 EELEC  =   -372518.0241  EHBOND  =         0.0000  RESTRAINT  =         0.0000
 EKCMT  =         0.0000  VIRIAL  =         0.0000  VOLUME     =    498212.8232
                                                    Density    =         1.0452
 ------------------------------------------------------------------------------

      A V E R A G E S   O V E R      20 S T E P S

 NSTEP =    20000   TIME(PS) =      20.000  TEMP(K) =   309.05  PRESS =     0.0
 Etot   =   -179832.3008  EKtot   =     46598.8473  EPtot      =   -226431.1481
 BOND   =     65266.8067  ANGLE   =      4408.0357  DIHED      =      3012.5841
 UB     =         0.0000  IMP     =         0.0000  CMAP       =       420.7138
 1-4 NB =      1884.0965  1-4 EEL =     19616.3921  VDWAALS    =     54042.3078
 EELEC  =   -375538.7142  EHBOND  =         0.0000  RESTRAINT  =       456.6295
 EAMBER (non-restraint)  =   -226887.7776
 EKCMT  =         0.0000  VIRIAL  =         0.0000  VOLUME     =    493959.7487
                                                    Density    =         1.0543
 ------------------------------------------------------------------------------

      R M S  F L U C T U A T I O N S

 NSTEP =    20000   TIME(PS) =      20.000  TEMP(K) =     4.66  PRESS =     0.0
 Etot   =      1581.8351  EKtot   =       702.2226  EPtot      =       961.1734
 BOND   =       299.3720  ANGLE   =        68.6318  DIHED      =        23.9709
 UB     =         0.0000  IMP     =         0.0000  CMAP       =         5.7509
 1-4 NB =        17.4647  1-4 EEL =        28.4926  VDWAALS    =       441.8990
 EELEC  =      1233.5189  EHBOND  =         0.0000  RESTRAINT  =        18.3461
 EAMBER (non-restraint)  =       942.8273
 EKCMT  =         0.0000  VIRIAL  =         0.0000  VOLUME     =      2231.2164
                                                    Density    =         0.0048
 ------------------------------------------------------------------------------
