-------------------------------------------------------
          Amber 20 PMEMD                              2020
          -------------------------------------------------------

  [-O]verwriting output

File Assignments:

 Here is the input file:

 MD simualation
&cntrl
 imin=0,           ! 1=run minimzation, 0=run MD
 nstlim=20000      ! Number of MD steps
 ntb=2,            ! 2=Constant Pressure, default when ntp>0. Unit cell size ch
 igb=0,            ! 1,2,5,8=implicit solvent
 ntc=1,            ! 2=SHAKE on for bonds with hydrogen (SHAKE restricts bond s
 dt=0.001,         ! Timestep (ps)
 ntp=1,            ! 1=Isotropic pressure scaling (0=no scaling) (should be 1 o
 barostat=2        ! 1=Berendsen barostat, 2=montecarlo thermostat, p347 of 202
 taup=0.5          ! Pressure relaxtion time (ps)
 ntf=1,            ! 2=No force evaluation for bonds with hydrogen (1=complete
 ntt=3,            ! Langevin thermostat (0=constant total energy, see p344 of
 gamma_ln=2.0      ! Collision Frequency for thermostat
 ig=-1,            ! Random seed for thermostat
 temp0=310         ! Simulation temperature (K)
 ntwx= 10000,        ! Write to trajectory file every ntwx steps
 ntpr= 1000,        ! Print to mdout every ntpr steps
 ntwr= 10000,        ! Write a restart file every ntwr steps
 cut=8,          ! Nonbonded cutoff in Angstroms
 ntr=1,            ! Turn on restraints
 restraintmask=":1-522 & !@H=", ! atoms to be restrained
 restraint_wt=1, ! force constant for restraint
 ntxo=2,           ! 1=Write coordinate file in ASCII format, 2=NetCDF
 ioutfm=1,         ! 0=Write trajectory file in ASCII format, 1=NetCDF
 nmropt=0,         !
/
&wt type='END' /
DISANG=zinc.rst
LISTOUT=POUT

Note: ig = -1. Setting random seed to   925625 based on wallclock time in
      microseconds.

--------------------------------------------------------------------------------
   1.  RESOURCE   USE:
--------------------------------------------------------------------------------

 getting box info from netcdf restart file
 NATOM  =   58286 NTYPES =      35 NBONH =   41576 MBONA  =   16801
 NTHETH =    9467 MTHETA =    5849 NPHIH =   19307 MPHIA  =   18363
 NHPARM =       0 NPARM  =       0 NNB   =  133657 NRES   =   12997
 NBONA  =   16801 NTHETA =    5849 NPHIA =   18363 NUMBND =      98
 NUMANG =     212 NPTRA  =     207 NATYP =      57 NPHB   =       1
 IFBOX  =       2 NMXRS  =      57 IFCAP =       0 NEXTRA =   12473
 NCOPY  =       0

     BOX TYPE: TRUNCATED OCTAHEDRON

--------------------------------------------------------------------------------
   2.  CONTROL  DATA  FOR  THE  RUN
--------------------------------------------------------------------------------

default_name

General flags:
     imin    =       0, nmropt  =       0

Nature and format of input:
     ntx     =       1, irest   =       0, ntrx    =       1

Nature and format of output:
     ntxo    =       2, ntpr    =    1000, ntrx    =       1, ntwr    =   10000
     iwrap   =       0, ntwx    =   10000, ntwv    =       0, ntwe    =       0
     ioutfm  =       1, ntwprt  =       0, idecomp =       0, rbornstat=      0

Potential function:
     ntf     =       1, ntb     =       2, igb     =       0, nsnb    =      25
     ipol    =       0, gbsa    =       0, iesp    =       0
     dielc   =   1.00000, cut     =   8.00000, intdiel =   1.00000

Frozen or restrained atoms:
     ibelly  =       0, ntr     =       1
     restraint_wt =   1.00000

Molecular dynamics:
     nstlim  =     20000, nscm    =         0, nrespa  =         1
     t       =   0.00000, dt      =   0.00100, vlimit  =  -1.00000

Langevin dynamics temperature regulation:
     ig      =  925625
     temp0   = 310.00000, tempi   =   0.00000, gamma_ln=   2.00000

Pressure regulation:
     ntp     =       1
     pres0   =   1.00000, comp    =  44.60000, taup    =   0.50000
     Monte-Carlo Barostat:
     mcbarint  =     100

Extra-points options:
     frameon =       1, chngmask=       1

Ewald parameters:
     verbose =       0, ew_type =       0, nbflag  =       1, use_pme =       1
     vdwmeth =       1, eedmeth =       1, netfrc  =       1
     Box X =   83.673   Box Y =   83.673   Box Z =   83.673
     Alpha =  109.471   Beta  =  109.471   Gamma =  109.471
     NFFT1 =   84       NFFT2 =   84       NFFT3 =   84
     Cutoff=    8.000   Tol   =0.100E-04
     Ewald Coefficient =  0.34864
     Interpolation order =    4

    LOADING THE CONSTRAINED ATOMS AS GROUPS

   5.  REFERENCE ATOM COORDINATES

  default_name
     Mask :1-522 & !@H=; matches  4235 atoms

--------------------------------------------------------------------------------
   3.  ATOMIC COORDINATES AND VELOCITIES
--------------------------------------------------------------------------------

default_name
 begin time read from input coords =    20.000 ps

 Number of triangulated 3-point waters found:    12473

     Sum of charges from parm topology file =  -0.00093178
     Forcing neutrality...

--------------------------------------------------------------------------------
   4.  RESULTS
 NSTEP =        0   TIME(PS) =       0.000  TEMP(K) =     0.00  PRESS =     0.0
 Etot   =   -200893.0702  EKtot   =         0.0000  EPtot      =   -200893.0702
 BOND   =     58022.3874  ANGLE   =      4327.4125  DIHED      =      3064.9769
 UB     =         0.0000  IMP     =         0.0000  CMAP       =       512.0603
 1-4 NB =      1942.7779  1-4 EEL =     19807.0911  VDWAALS    =     46856.2428
 EELEC  =   -335426.0190  EHBOND  =         0.0000  RESTRAINT  =         0.0000
 EKCMT  =         0.0000  VIRIAL  =         0.0000  VOLUME     =    450959.6049
                                                    Density    =         1.0493
 ------------------------------------------------------------------------------

      A V E R A G E S   O V E R      20 S T E P S

 NSTEP =    20000   TIME(PS) =      20.000  TEMP(K) =   308.96  PRESS =     0.0
 Etot   =   -159685.9078  EKtot   =     42191.5646  EPtot      =   -201877.4725
 BOND   =     58172.0759  ANGLE   =      4415.3467  DIHED      =      3085.8457
 UB     =         0.0000  IMP     =         0.0000  CMAP       =       501.5043
 1-4 NB =      1934.1095  1-4 EEL =     19735.8085  VDWAALS    =     47355.2399
 EELEC  =   -337593.0820  EHBOND  =         0.0000  RESTRAINT  =       515.6790
 EAMBER (non-restraint)  =   -202393.1515
 EKCMT  =         0.0000  VIRIAL  =         0.0000  VOLUME     =    447313.2093
                                                    Density    =         1.0578
 ------------------------------------------------------------------------------

      R M S  F L U C T U A T I O N S

 NSTEP =    20000   TIME(PS) =      20.000  TEMP(K) =     4.93  PRESS =     0.0
 Etot   =      1392.5645  EKtot   =       673.2060  EPtot      =       795.7031
 BOND   =       377.4875  ANGLE   =        65.7192  DIHED      =        26.4095
 UB     =         0.0000  IMP     =         0.0000  CMAP       =         7.8526
 1-4 NB =        15.3342  1-4 EEL =        51.3408  VDWAALS    =       262.7661
 EELEC  =       788.3163  EHBOND  =         0.0000  RESTRAINT  =        23.7325
 EAMBER (non-restraint)  =       771.9706
 EKCMT  =         0.0000  VIRIAL  =         0.0000  VOLUME     =      1849.1033
                                                    Density    =         0.0044
 ------------------------------------------------------------------------------
