-------------------------------------------------------
          Amber 20 PMEMD                              2020
          -------------------------------------------------------

  [-O]verwriting output

File Assignments:

 Here is the input file:

 MD simualation
&cntrl
 imin=0,           ! Perform MD
 nstlim=20000      ! Number of MD steps
 ntb=2,            ! 2=Constant Pressure, default when ntp>0. Unit cell size ch
 igb=0,            ! 1,2,5,8=implicit solvent
 ntc=1,            ! 2=SHAKE on for bonds with hydrogen (SHAKE restricts bond s
 dt=0.001,         ! Timestep (ps)
 ntp=1,            ! 1=Isotropic pressure scaling (0=no scaling) (should be 1 o
 barostat=2        ! 1=Berendsen barostat, 2=montecarlo thermostat, p339 amber
 taup=0.5          ! Pressure relaxtion time (ps)
 ntf=1,            ! 2=No force evaluation for bonds with hydrogen (1=complete
 ntt=3,            ! Langevin thermostat (0=constant total energy, p337 manual)
 gamma_ln=2.0      ! Collision Frequency for thermostat
 ig=-1,            ! Random seed for thermostat
 temp0=310         ! Simulation temperature (K)
 ntwx= 10000,        ! Write to trajectory file every ntwx steps
 ntpr= 1000,        ! Print to mdout every ntpr steps
 ntwr= 10000,        ! Write a restart file every ntwr steps
 cut=8,          ! Nonbonded cutoff in Angstroms
 ntr=0,            ! Restraints OFF and next 2 lines are ineffective (1=on)
 restraintmask=":1-111 & !@H=|:253@CCE,CCL,CAB,CCJ", ! atoms to be restrained (
 restraint_wt=10, ! force constant for restraint
 ntxo=2,           ! 1=Write coordinate file in ASCII format, 2=NetCDF
 ntxo=2,           ! 1=Write coordinate file in ASCII format, 2=NetCDF
 ioutfm=1,         ! 0=Write trajectory file in ASCII format, 1=NetCDF
 nmropt=1,         !
/
&wt type='END'
/

Note: ig = -1. Setting random seed to   480456 based on wallclock time in
      microseconds.

--------------------------------------------------------------------------------
   1.  RESOURCE   USE:
--------------------------------------------------------------------------------

 getting box info from netcdf restart file
 NATOM  =   56400 NTYPES =      33 NBONH =   40161 MBONA  =   16330
 NTHETH =    9475 MTHETA =    5853 NPHIH =   19321 MPHIA  =   18364
 NHPARM =       0 NPARM  =       0 NNB   =  130380 NRES   =   12524
 NBONA  =   16330 NTHETA =    5853 NPHIA =   18364 NUMBND =     100
 NUMANG =     217 NPTRA  =     210 NATYP =      57 NPHB   =       0
 IFBOX  =       2 NMXRS  =      63 IFCAP =       0 NEXTRA =   12000
 NCOPY  =       0

     BOX TYPE: TRUNCATED OCTAHEDRON

--------------------------------------------------------------------------------
   2.  CONTROL  DATA  FOR  THE  RUN
--------------------------------------------------------------------------------

default_name

General flags:
     imin    =       0, nmropt  =       1

Nature and format of input:
     ntx     =       1, irest   =       0, ntrx    =       1

Nature and format of output:
     ntxo    =       2, ntpr    =    1000, ntrx    =       1, ntwr    =   10000
     iwrap   =       0, ntwx    =   10000, ntwv    =       0, ntwe    =       0
     ioutfm  =       1, ntwprt  =       0, idecomp =       0, rbornstat=      0

Potential function:
     ntf     =       1, ntb     =       2, igb     =       0, nsnb    =      25
     ipol    =       0, gbsa    =       0, iesp    =       0
     dielc   =   1.00000, cut     =   8.00000, intdiel =   1.00000

Frozen or restrained atoms:
     ibelly  =       0, ntr     =       0

Molecular dynamics:
     nstlim  =     20000, nscm    =      1000, nrespa  =         1
     t       =   0.00000, dt      =   0.00100, vlimit  =  -1.00000

Langevin dynamics temperature regulation:
     ig      =  480456
     temp0   = 310.00000, tempi   =   0.00000, gamma_ln=   2.00000

Pressure regulation:
     ntp     =       1
     pres0   =   1.00000, comp    =  44.60000, taup    =   0.50000
     Monte-Carlo Barostat:
     mcbarint  =     100

NMR refinement options:
     iscale  =       0, noeskp  =       1, ipnlty  =       1, mxsub   =       1
     scalm   = 100.00000, pencut  =   0.10000, tausw   =   0.10000

Extra-points options:
     frameon =       1, chngmask=       1

Ewald parameters:
     verbose =       0, ew_type =       0, nbflag  =       1, use_pme =       1
     vdwmeth =       1, eedmeth =       1, netfrc  =       1
     Box X =   82.474   Box Y =   82.474   Box Z =   82.474
     Alpha =  109.471   Beta  =  109.471   Gamma =  109.471
     NFFT1 =   84       NFFT2 =   84       NFFT3 =   84
     Cutoff=    8.000   Tol   =0.100E-04
     Ewald Coefficient =  0.34864
     Interpolation order =    4

--------------------------------------------------------------------------------
   3.  ATOMIC COORDINATES AND VELOCITIES
--------------------------------------------------------------------------------

default_name
 begin time read from input coords =    20.000 ps

           Begin reading energy term weight changes/NMR restraints
 WEIGHT CHANGES:
                         ** No weight changes given **

 RESTRAINTS:
                          ** No restraint defined **

                  Done reading weight changes/NMR restraints

 Number of triangulated 3-point waters found:    12000

     Sum of charges from parm topology file =  -0.00093438
     Forcing neutrality...

--------------------------------------------------------------------------------
   4.  RESULTS
 NSTEP =        0   TIME(PS) =       0.000  TEMP(K) =     0.00  PRESS =     0.0
 Etot   =   -195862.6534  EKtot   =         0.0000  EPtot      =   -195862.6534
 BOND   =     56249.1989  ANGLE   =      4410.3677  DIHED      =      3040.1926
 UB     =         0.0000  IMP     =         0.0000  CMAP       =       405.9563
 1-4 NB =      1918.8629  1-4 EEL =     19481.1706  VDWAALS    =     45289.8942
 EELEC  =   -326658.2966  EHBOND  =         0.0000  RESTRAINT  =         0.0000
 EKCMT  =         0.0000  VIRIAL  =         0.0000  VOLUME     =    431845.6077
                                                    Density    =         1.0630
 ------------------------------------------------------------------------------

      A V E R A G E S   O V E R      20 S T E P S

 NSTEP =    20000   TIME(PS) =      20.000  TEMP(K) =   308.91  PRESS =     0.0
 Etot   =   -156159.3788  EKtot   =     40883.4871  EPtot      =   -197042.8659
 BOND   =     56572.1512  ANGLE   =      4452.0507  DIHED      =      3053.9039
 UB     =         0.0000  IMP     =         0.0000  CMAP       =       413.0756
 1-4 NB =      1912.3838  1-4 EEL =     19507.6951  VDWAALS    =     45930.1873
 EELEC  =   -328884.3135  EHBOND  =         0.0000  RESTRAINT  =         0.0000
 EKCMT  =         0.0000  VIRIAL  =         0.0000  VOLUME     =    429201.1330
                                                    Density    =         1.0695
 ------------------------------------------------------------------------------

      R M S  F L U C T U A T I O N S

 NSTEP =    20000   TIME(PS) =      20.000  TEMP(K) =     5.29  PRESS =     0.0
 Etot   =      1447.3064  EKtot   =       699.5726  EPtot      =       767.8097
 BOND   =       226.4837  ANGLE   =        71.8453  DIHED      =        29.8265
 UB     =         0.0000  IMP     =         0.0000  CMAP       =        11.1232
 1-4 NB =        13.6153  1-4 EEL =        46.9688  VDWAALS    =       349.1814
 EELEC  =       914.9449  EHBOND  =         0.0000  RESTRAINT  =         0.0000
 EKCMT  =         0.0000  VIRIAL  =         0.0000  VOLUME     =       664.3349
                                                    Density    =         0.0017
 ------------------------------------------------------------------------------
