-------------------------------------------------------
          Amber 20 PMEMD                              2020
          -------------------------------------------------------

  [-O]verwriting output

File Assignments:

 Here is the input file:

 MD simualation
&cntrl
 imin=0,           ! 1=run minimzation, 0=run MD
 nstlim=20000      ! Number of MD steps
 ntb=2,            ! 2=Constant Pressure, default when ntp>0. Unit cell size ch
 igb=0,            ! 1,2,5,8=implicit solvent
 ntc=1,            ! 2=SHAKE on for bonds with hydrogen (SHAKE restricts bond s
 dt=0.001,         ! Timestep (ps)
 ntp=1,            ! 1=Isotropic pressure scaling (0=no scaling) (should be 1 o
 barostat=2        ! 1=Berendsen barostat, 2=montecarlo thermostat, p347 of 202
 taup=0.5          ! Pressure relaxtion time (ps)
 ntf=1,            ! 2=No force evaluation for bonds with hydrogen (1=complete
 ntt=3,            ! Langevin thermostat (0=constant total energy, see p344 of
 gamma_ln=2.0      ! Collision Frequency for thermostat
 ig=-1,            ! Random seed for thermostat
 temp0=310         ! Simulation temperature (K)
 ntwx= 10000,        ! Write to trajectory file every ntwx steps
 ntpr= 1000,        ! Print to mdout every ntpr steps
 ntwr= 10000,        ! Write a restart file every ntwr steps
 cut=8,          ! Nonbonded cutoff in Angstroms
 ntr=1,            ! Turn on restraints
 restraintmask=":1-522 & !@H=", ! atoms to be restrained
 restraint_wt=1, ! force constant for restraint
 ntxo=2,           ! 1=Write coordinate file in ASCII format, 2=NetCDF
 ioutfm=1,         ! 0=Write trajectory file in ASCII format, 1=NetCDF
 nmropt=0,         !
/
&wt type='END' /
DISANG=zinc.rst
LISTOUT=POUT

Note: ig = -1. Setting random seed to   330996 based on wallclock time in
      microseconds.

--------------------------------------------------------------------------------
   1.  RESOURCE   USE:
--------------------------------------------------------------------------------

 getting box info from netcdf restart file
 NATOM  =   57505 NTYPES =      27 NBONH =   40997 MBONA  =   16596
 NTHETH =    9447 MTHETA =    5821 NPHIH =   19274 MPHIA  =   18290
 NHPARM =       0 NPARM  =       0 NNB   =  132187 NRES   =   12808
 NBONA  =   16596 NTHETA =    5821 NPHIA =   18290 NUMBND =      85
 NUMANG =     194 NPTRA  =     204 NATYP =      47 NPHB   =       1
 IFBOX  =       2 NMXRS  =      35 IFCAP =       0 NEXTRA =   12283
 NCOPY  =       0

     BOX TYPE: TRUNCATED OCTAHEDRON

--------------------------------------------------------------------------------
   2.  CONTROL  DATA  FOR  THE  RUN
--------------------------------------------------------------------------------

default_name

General flags:
     imin    =       0, nmropt  =       0

Nature and format of input:
     ntx     =       1, irest   =       0, ntrx    =       1

Nature and format of output:
     ntxo    =       2, ntpr    =    1000, ntrx    =       1, ntwr    =   10000
     iwrap   =       0, ntwx    =   10000, ntwv    =       0, ntwe    =       0
     ioutfm  =       1, ntwprt  =       0, idecomp =       0, rbornstat=      0

Potential function:
     ntf     =       1, ntb     =       2, igb     =       0, nsnb    =      25
     ipol    =       0, gbsa    =       0, iesp    =       0
     dielc   =   1.00000, cut     =   8.00000, intdiel =   1.00000

Frozen or restrained atoms:
     ibelly  =       0, ntr     =       1
     restraint_wt =   1.00000

Molecular dynamics:
     nstlim  =     20000, nscm    =         0, nrespa  =         1
     t       =   0.00000, dt      =   0.00100, vlimit  =  -1.00000

Langevin dynamics temperature regulation:
     ig      =  330996
     temp0   = 310.00000, tempi   =   0.00000, gamma_ln=   2.00000

Pressure regulation:
     ntp     =       1
     pres0   =   1.00000, comp    =  44.60000, taup    =   0.50000
     Monte-Carlo Barostat:
     mcbarint  =     100

Extra-points options:
     frameon =       1, chngmask=       1

Ewald parameters:
     verbose =       0, ew_type =       0, nbflag  =       1, use_pme =       1
     vdwmeth =       1, eedmeth =       1, netfrc  =       1
     Box X =   83.240   Box Y =   83.240   Box Z =   83.240
     Alpha =  109.471   Beta  =  109.471   Gamma =  109.471
     NFFT1 =   84       NFFT2 =   84       NFFT3 =   84
     Cutoff=    8.000   Tol   =0.100E-04
     Ewald Coefficient =  0.34864
     Interpolation order =    4

    LOADING THE CONSTRAINED ATOMS AS GROUPS

   5.  REFERENCE ATOM COORDINATES

  default_name
     Mask :1-522 & !@H=; matches  4222 atoms

--------------------------------------------------------------------------------
   3.  ATOMIC COORDINATES AND VELOCITIES
--------------------------------------------------------------------------------

default_name
 begin time read from input coords =    20.000 ps

 Number of triangulated 3-point waters found:    12283

     Sum of charges from parm topology file =   0.00106718
     Forcing neutrality...

--------------------------------------------------------------------------------
   4.  RESULTS
 NSTEP =        0   TIME(PS) =       0.000  TEMP(K) =     0.00  PRESS =     0.0
 Etot   =   -198600.4965  EKtot   =         0.0000  EPtot      =   -198600.4965
 BOND   =     57191.3540  ANGLE   =      4269.5394  DIHED      =      2996.5355
 UB     =         0.0000  IMP     =         0.0000  CMAP       =       488.9999
 1-4 NB =      1902.9501  1-4 EEL =     19916.5392  VDWAALS    =     45802.9840
 EELEC  =   -331169.3987  EHBOND  =         0.0000  RESTRAINT  =         0.0000
 EKCMT  =         0.0000  VIRIAL  =         0.0000  VOLUME     =    443983.9017
                                                    Density    =         1.0522
 ------------------------------------------------------------------------------

      A V E R A G E S   O V E R      20 S T E P S

 NSTEP =    20000   TIME(PS) =      20.000  TEMP(K) =   308.95  PRESS =     0.0
 Etot   =   -157883.1809  EKtot   =     41644.9961  EPtot      =   -199528.1770
 BOND   =     57628.9859  ANGLE   =      4331.1786  DIHED      =      3038.5588
 UB     =         0.0000  IMP     =         0.0000  CMAP       =       479.4605
 1-4 NB =      1909.4994  1-4 EEL =     19868.5177  VDWAALS    =     46586.4504
 EELEC  =   -333870.5940  EHBOND  =         0.0000  RESTRAINT  =       499.7657
 EAMBER (non-restraint)  =   -200027.9427
 EKCMT  =         0.0000  VIRIAL  =         0.0000  VOLUME     =    440941.3299
                                                    Density    =         1.0595
 ------------------------------------------------------------------------------

      R M S  F L U C T U A T I O N S

 NSTEP =    20000   TIME(PS) =      20.000  TEMP(K) =     4.91  PRESS =     0.0
 Etot   =      1379.9739  EKtot   =       661.3389  EPtot      =       759.9931
 BOND   =       292.0044  ANGLE   =        53.2255  DIHED      =        24.3041
 UB     =         0.0000  IMP     =         0.0000  CMAP       =         8.7481
 1-4 NB =        16.2284  1-4 EEL =        47.0784  VDWAALS    =       288.5611
 EELEC  =       714.0036  EHBOND  =         0.0000  RESTRAINT  =        25.5210
 EAMBER (non-restraint)  =       734.4721
 EKCMT  =         0.0000  VIRIAL  =         0.0000  VOLUME     =      1332.0594
                                                    Density    =         0.0032
 ------------------------------------------------------------------------------
