-------------------------------------------------------
          Amber 20 PMEMD                              2020
          -------------------------------------------------------

  [-O]verwriting output

File Assignments:

 Here is the input file:

 MD simulations
&cntrl
 imin=0,           ! Perform MD (1=energy minimization)
 nstlim=500000    ! Number of MD steps
 ntx=5,            ! Both positions and velocities are read (1=only read positi
 irest=1,          ! Continue calculation (0=start a new calculation from stati
 ntc=2,            ! 2=SHAKE on for bonds with hydrogen (SHAKE restricts bond s
 dt=0.004,         ! Timestep (ps)
 ntb=1,            ! 2=Constant Pressure, default when ntp>0. Unit cell size ch
 igb=0,            !
 ntp=0,            ! 1=Isotropic pressure scaling (0=no scaling) (should be 1 o
 barostat=2        ! 1=Berendsen barostat, 2=montecarlo thermostat, p347 of 202
 taup=0.5          ! Pressure relaxtion time (ps)
 ntf=2,            ! No force evaluation for bonds with hydrogen (1=complete fo
 ntt=3,            ! Langevin thermostat (0=constant total energy, see p344 of
 gamma_ln=0.01       ! Collision Frequency for thermostat
 ig=-1,            ! Random number generator for thermostat (-1=based on curren
 temp0=310,         ! Simulation temperature (K)
 ntwx= 25000,       ! Write to trajectory file every ntwx steps
 ntpr= 5000,       ! Print to mdout every ntpr steps
 ntwr= 25000,       ! Write a restart file every ntwr steps
 cut=  8,        ! Nonbonded cutoff in Angstroms
 ntr=0,            ! Restraints OFF and next 2 lines are ineffective (1=on)
 restraintmask=":396>@8&!:WAT,Na+", ! atoms to be restrained (atoms 8A or more
 restraint_wt=10, ! force constant (Kcal/mol/A2) for restraint
 ntxo=2,           ! Write coordinate file in NetCDF format (1=ASCII format)
 ioutfm=1,         ! Write trajectory file in NetCDF format (0=ASCII format)
 iwrap=1,          ! iwrap is turned on (0=off)
 nmropt=0,         !
/
&wt type='END' /
DISANG=zinc.rst
LISTOUT=POUT

Note: ig = -1. Setting random seed to    55284 based on wallclock time in
      microseconds.

--------------------------------------------------------------------------------
   1.  RESOURCE   USE:
--------------------------------------------------------------------------------

 getting box info from netcdf restart file
 NATOM  =   57505 NTYPES =      27 NBONH =   40997 MBONA  =   16596
 NTHETH =    9447 MTHETA =    5821 NPHIH =   19274 MPHIA  =   18290
 NHPARM =       0 NPARM  =       0 NNB   =  132187 NRES   =   12808
 NBONA  =   16596 NTHETA =    5821 NPHIA =   18290 NUMBND =      85
 NUMANG =     194 NPTRA  =     204 NATYP =      47 NPHB   =       1
 IFBOX  =       2 NMXRS  =      35 IFCAP =       0 NEXTRA =   12283
 NCOPY  =       0

     BOX TYPE: TRUNCATED OCTAHEDRON

--------------------------------------------------------------------------------
   2.  CONTROL  DATA  FOR  THE  RUN
--------------------------------------------------------------------------------

default_name

General flags:
     imin    =       0, nmropt  =       0

Nature and format of input:
     ntx     =       5, irest   =       1, ntrx    =       1

Nature and format of output:
     ntxo    =       2, ntpr    =    5000, ntrx    =       1, ntwr    =   25000
     iwrap   =       1, ntwx    =   25000, ntwv    =       0, ntwe    =       0
     ioutfm  =       1, ntwprt  =       0, idecomp =       0, rbornstat=      0

Potential function:
     ntf     =       2, ntb     =       1, igb     =       0, nsnb    =      25
     ipol    =       0, gbsa    =       0, iesp    =       0
     dielc   =   1.00000, cut     =   8.00000, intdiel =   1.00000

Frozen or restrained atoms:
     ibelly  =       0, ntr     =       0

Molecular dynamics:
     nstlim  =    500000, nscm    =      1000, nrespa  =         1
     t       =   0.00000, dt      =   0.00400, vlimit  =  -1.00000

Langevin dynamics temperature regulation:
     ig      =   55284
     temp0   = 310.00000, tempi   =   0.00000, gamma_ln=   0.01000

SHAKE:
     ntc     =       2, jfastw  =       0
     tol     =   0.00001

Extra-points options:
     frameon =       1, chngmask=       1

Ewald parameters:
     verbose =       0, ew_type =       0, nbflag  =       1, use_pme =       1
     vdwmeth =       1, eedmeth =       1, netfrc  =       1
     Box X =   82.672   Box Y =   82.672   Box Z =   82.672
     Alpha =  109.471   Beta  =  109.471   Gamma =  109.471
     NFFT1 =   84       NFFT2 =   84       NFFT3 =   84
     Cutoff=    8.000   Tol   =0.100E-04
     Ewald Coefficient =  0.34864
     Interpolation order =    4

--------------------------------------------------------------------------------
   3.  ATOMIC COORDINATES AND VELOCITIES
--------------------------------------------------------------------------------

default_name
 begin time read from input coords =    20.000 ps

 Number of triangulated 3-point waters found:    12283

     Sum of charges from parm topology file =   0.00106718
     Forcing neutrality...

--------------------------------------------------------------------------------
   4.  RESULTS
 NSTEP =     5000   TIME(PS) =      40.000  TEMP(K) =   291.48  PRESS =     0.0
 Etot   =   -142473.7034  EKtot   =     27417.2988  EPtot      =   -169891.0022
 BOND   =      1695.5502  ANGLE   =      4485.5599  DIHED      =      3043.4609
 UB     =         0.0000  IMP     =         0.0000  CMAP       =       428.8573
 1-4 NB =      1926.0882  1-4 EEL =     19796.9594  VDWAALS    =     16633.6101
 EELEC  =   -217901.0883  EHBOND  =         0.0000  RESTRAINT  =         0.0000
 ------------------------------------------------------------------------------

      A V E R A G E S   O V E R     100 S T E P S

 NSTEP =   500000   TIME(PS) =    2020.000  TEMP(K) =   309.52  PRESS =     0.0
 Etot   =   -137775.0416  EKtot   =     29114.5337  EPtot      =   -166889.5753
 BOND   =      1816.6397  ANGLE   =      4627.8101  DIHED      =      3064.1745
 UB     =         0.0000  IMP     =         0.0000  CMAP       =       436.4878
 1-4 NB =      1912.0295  1-4 EEL =     19813.6309  VDWAALS    =     15191.1998
 EELEC  =   -213751.5476  EHBOND  =         0.0000  RESTRAINT  =         0.0000
 ------------------------------------------------------------------------------

      R M S  F L U C T U A T I O N S

 NSTEP =   500000   TIME(PS) =    2020.000  TEMP(K) =     3.74  PRESS =     0.0
 Etot   =       964.5400  EKtot   =       351.3674  EPtot      =       643.5262
 BOND   =        39.6768  ANGLE   =        66.0009  DIHED      =        30.5722
 UB     =         0.0000  IMP     =         0.0000  CMAP       =        10.6409
 1-4 NB =        20.0068  1-4 EEL =        64.4303  VDWAALS    =       306.6416
 EELEC  =       812.8549  EHBOND  =         0.0000  RESTRAINT  =         0.0000
 ------------------------------------------------------------------------------
