-------------------------------------------------------
          Amber 20 PMEMD                              2020
          -------------------------------------------------------

  [-O]verwriting output

File Assignments:

 Here is the input file:

 MD simualation
&cntrl
 imin=0,           ! Perform MD
 nstlim=20000      ! Number of MD steps
 ntb=2,            ! 2=Constant Pressure, default when ntp>0. Unit cell size ch
 igb=0,            ! 1,2,5,8=implicit solvent
 ntc=1,            ! 2=SHAKE on for bonds with hydrogen (SHAKE restricts bond s
 dt=0.001,         ! Timestep (ps)
 ntp=1,            ! 1=Isotropic pressure scaling (0=no scaling) (should be 1 o
 barostat=2        ! 1=Berendsen barostat, 2=montecarlo thermostat, p339 amber
 taup=0.5          ! Pressure relaxtion time (ps)
 ntf=1,            ! 2=No force evaluation for bonds with hydrogen (1=complete
 ntt=3,            ! Langevin thermostat (0=constant total energy, p337 manual)
 gamma_ln=2.0      ! Collision Frequency for thermostat
 ig=-1,            ! Random seed for thermostat
 temp0=310         ! Simulation temperature (K)
 ntwx= 10000,        ! Write to trajectory file every ntwx steps
 ntpr= 1000,        ! Print to mdout every ntpr steps
 ntwr= 10000,        ! Write a restart file every ntwr steps
 cut=8,          ! Nonbonded cutoff in Angstroms
 ntr=0,            ! Restraints OFF and next 2 lines are ineffective (1=on)
 restraintmask=":1-111 & !@H=|:253@CCE,CCL,CAB,CCJ", ! atoms to be restrained (
 restraint_wt=10, ! force constant for restraint
 ntxo=2,           ! 1=Write coordinate file in ASCII format, 2=NetCDF
 ntxo=2,           ! 1=Write coordinate file in ASCII format, 2=NetCDF
 ioutfm=1,         ! 0=Write trajectory file in ASCII format, 1=NetCDF
 nmropt=1,         !
/
&wt type='END'
/

Note: ig = -1. Setting random seed to   886005 based on wallclock time in
      microseconds.

--------------------------------------------------------------------------------
   1.  RESOURCE   USE:
--------------------------------------------------------------------------------

 getting box info from netcdf restart file
 NATOM  =   57192 NTYPES =      31 NBONH =   40760 MBONA  =   16521
 NTHETH =    9451 MTHETA =    5832 NPHIH =   19281 MPHIA  =   18310
 NHPARM =       0 NPARM  =       0 NNB   =  131671 NRES   =   12727
 NBONA  =   16521 NTHETA =    5832 NPHIA =   18310 NUMBND =      90
 NUMANG =     202 NPTRA  =     203 NATYP =      51 NPHB   =       1
 IFBOX  =       2 NMXRS  =      43 IFCAP =       0 NEXTRA =   12203
 NCOPY  =       0

     BOX TYPE: TRUNCATED OCTAHEDRON

--------------------------------------------------------------------------------
   2.  CONTROL  DATA  FOR  THE  RUN
--------------------------------------------------------------------------------

default_name

General flags:
     imin    =       0, nmropt  =       1

Nature and format of input:
     ntx     =       1, irest   =       0, ntrx    =       1

Nature and format of output:
     ntxo    =       2, ntpr    =    1000, ntrx    =       1, ntwr    =   10000
     iwrap   =       0, ntwx    =   10000, ntwv    =       0, ntwe    =       0
     ioutfm  =       1, ntwprt  =       0, idecomp =       0, rbornstat=      0

Potential function:
     ntf     =       1, ntb     =       2, igb     =       0, nsnb    =      25
     ipol    =       0, gbsa    =       0, iesp    =       0
     dielc   =   1.00000, cut     =   8.00000, intdiel =   1.00000

Frozen or restrained atoms:
     ibelly  =       0, ntr     =       0

Molecular dynamics:
     nstlim  =     20000, nscm    =      1000, nrespa  =         1
     t       =   0.00000, dt      =   0.00100, vlimit  =  -1.00000

Langevin dynamics temperature regulation:
     ig      =  886005
     temp0   = 310.00000, tempi   =   0.00000, gamma_ln=   2.00000

Pressure regulation:
     ntp     =       1
     pres0   =   1.00000, comp    =  44.60000, taup    =   0.50000
     Monte-Carlo Barostat:
     mcbarint  =     100

NMR refinement options:
     iscale  =       0, noeskp  =       1, ipnlty  =       1, mxsub   =       1
     scalm   = 100.00000, pencut  =   0.10000, tausw   =   0.10000

Extra-points options:
     frameon =       1, chngmask=       1

Ewald parameters:
     verbose =       0, ew_type =       0, nbflag  =       1, use_pme =       1
     vdwmeth =       1, eedmeth =       1, netfrc  =       1
     Box X =   82.775   Box Y =   82.775   Box Z =   82.775
     Alpha =  109.471   Beta  =  109.471   Gamma =  109.471
     NFFT1 =   84       NFFT2 =   84       NFFT3 =   84
     Cutoff=    8.000   Tol   =0.100E-04
     Ewald Coefficient =  0.34864
     Interpolation order =    4

--------------------------------------------------------------------------------
   3.  ATOMIC COORDINATES AND VELOCITIES
--------------------------------------------------------------------------------

default_name
 begin time read from input coords =    20.000 ps

           Begin reading energy term weight changes/NMR restraints
 WEIGHT CHANGES:
                         ** No weight changes given **

 RESTRAINTS:
                          ** No restraint defined **

                  Done reading weight changes/NMR restraints

 Number of triangulated 3-point waters found:    12203

     Sum of charges from parm topology file =  -0.00193226
     Forcing neutrality...

--------------------------------------------------------------------------------
   4.  RESULTS
 NSTEP =        0   TIME(PS) =       0.000  TEMP(K) =     0.00  PRESS =     0.0
 Etot   =   -199384.9429  EKtot   =         0.0000  EPtot      =   -199384.9429
 BOND   =     57516.7290  ANGLE   =      4337.0584  DIHED      =      3003.0650
 UB     =         0.0000  IMP     =         0.0000  CMAP       =       414.6488
 1-4 NB =      1876.2439  1-4 EEL =     19610.5454  VDWAALS    =     46704.3621
 EELEC  =   -332847.5955  EHBOND  =         0.0000  RESTRAINT  =         0.0000
 EKCMT  =         0.0000  VIRIAL  =         0.0000  VOLUME     =    436585.3258
                                                    Density    =         1.0649
 ------------------------------------------------------------------------------

      A V E R A G E S   O V E R      20 S T E P S

 NSTEP =    20000   TIME(PS) =      20.000  TEMP(K) =   308.70  PRESS =     0.0
 Etot   =   -158657.7193  EKtot   =     41397.7111  EPtot      =   -200055.4305
 BOND   =     57546.3753  ANGLE   =      4442.2288  DIHED      =      3034.2998
 UB     =         0.0000  IMP     =         0.0000  CMAP       =       428.5505
 1-4 NB =      1900.0524  1-4 EEL =     19662.6647  VDWAALS    =     46718.6122
 EELEC  =   -333788.2142  EHBOND  =         0.0000  RESTRAINT  =         0.0000
 EKCMT  =         0.0000  VIRIAL  =         0.0000  VOLUME     =    434964.5160
                                                    Density    =         1.0689
 ------------------------------------------------------------------------------

      R M S  F L U C T U A T I O N S

 NSTEP =    20000   TIME(PS) =      20.000  TEMP(K) =     5.16  PRESS =     0.0
 Etot   =      1501.6029  EKtot   =       692.3071  EPtot      =       871.2399
 BOND   =       320.3913  ANGLE   =        72.0122  DIHED      =        32.0334
 UB     =         0.0000  IMP     =         0.0000  CMAP       =        10.3783
 1-4 NB =        21.9940  1-4 EEL =        49.4609  VDWAALS    =       362.1868
 EELEC  =      1190.4772  EHBOND  =         0.0000  RESTRAINT  =         0.0000
 EKCMT  =         0.0000  VIRIAL  =         0.0000  VOLUME     =      1400.0167
                                                    Density    =         0.0034
 ------------------------------------------------------------------------------
