-------------------------------------------------------
          Amber 20 PMEMD                              2020
          -------------------------------------------------------

  [-O]verwriting output

File Assignments:

 Here is the input file:

 MD simualation
&cntrl
 imin=0,           ! 1=run minimzation, 0=run MD
 nstlim=20000      ! Number of MD steps
 ntb=2,            ! 2=Constant Pressure, default when ntp>0. Unit cell size ch
 igb=0,            ! 1,2,5,8=implicit solvent
 ntc=1,            ! 2=SHAKE on for bonds with hydrogen (SHAKE restricts bond s
 dt=0.001,         ! Timestep (ps)
 ntp=1,            ! 1=Isotropic pressure scaling (0=no scaling) (should be 1 o
 barostat=2        ! 1=Berendsen barostat, 2=montecarlo thermostat, p347 of 202
 taup=0.5          ! Pressure relaxtion time (ps)
 ntf=1,            ! 2=No force evaluation for bonds with hydrogen (1=complete
 ntt=3,            ! Langevin thermostat (0=constant total energy, see p344 of
 gamma_ln=2.0      ! Collision Frequency for thermostat
 ig=-1,            ! Random seed for thermostat
 temp0=310         ! Simulation temperature (K)
 ntwx= 10000,        ! Write to trajectory file every ntwx steps
 ntpr= 1000,        ! Print to mdout every ntpr steps
 ntwr= 10000,        ! Write a restart file every ntwr steps
 cut=8,          ! Nonbonded cutoff in Angstroms
 ntr=1,            ! Turn on restraints
 restraintmask=":1-522 & !@H=", ! atoms to be restrained (all in BRD4 but not H
 restraint_wt=1, ! force constant for restraint
 ntxo=2,           ! 1=Write coordinate file in ASCII format, 2=NetCDF
 ioutfm=1,         ! 0=Write trajectory file in ASCII format, 1=NetCDF
 nmropt=1,         !
/
&wt type='END'
/

Note: ig = -1. Setting random seed to   706021 based on wallclock time in
      microseconds.

--------------------------------------------------------------------------------
   1.  RESOURCE   USE:
--------------------------------------------------------------------------------

 getting box info from netcdf restart file
 NATOM  =   61966 NTYPES =      34 NBONH =   44336 MBONA  =   17721
 NTHETH =    9467 MTHETA =    5849 NPHIH =   19307 MPHIA  =   18363
 NHPARM =       0 NPARM  =       0 NNB   =  140097 NRES   =   13917
 NBONA  =   17721 NTHETA =    5849 NPHIA =   18363 NUMBND =      98
 NUMANG =     212 NPTRA  =     207 NATYP =      57 NPHB   =       0
 IFBOX  =       2 NMXRS  =      57 IFCAP =       0 NEXTRA =   13393
 NCOPY  =       0

     BOX TYPE: TRUNCATED OCTAHEDRON

--------------------------------------------------------------------------------
   2.  CONTROL  DATA  FOR  THE  RUN
--------------------------------------------------------------------------------

default_name

General flags:
     imin    =       0, nmropt  =       1

Nature and format of input:
     ntx     =       1, irest   =       0, ntrx    =       1

Nature and format of output:
     ntxo    =       2, ntpr    =    1000, ntrx    =       1, ntwr    =   10000
     iwrap   =       0, ntwx    =   10000, ntwv    =       0, ntwe    =       0
     ioutfm  =       1, ntwprt  =       0, idecomp =       0, rbornstat=      0

Potential function:
     ntf     =       1, ntb     =       2, igb     =       0, nsnb    =      25
     ipol    =       0, gbsa    =       0, iesp    =       0
     dielc   =   1.00000, cut     =   8.00000, intdiel =   1.00000

Frozen or restrained atoms:
     ibelly  =       0, ntr     =       1
     restraint_wt =   1.00000

Molecular dynamics:
     nstlim  =     20000, nscm    =         0, nrespa  =         1
     t       =   0.00000, dt      =   0.00100, vlimit  =  -1.00000

Langevin dynamics temperature regulation:
     ig      =  706021
     temp0   = 310.00000, tempi   =   0.00000, gamma_ln=   2.00000

Pressure regulation:
     ntp     =       1
     pres0   =   1.00000, comp    =  44.60000, taup    =   0.50000
     Monte-Carlo Barostat:
     mcbarint  =     100

NMR refinement options:
     iscale  =       0, noeskp  =       1, ipnlty  =       1, mxsub   =       1
     scalm   = 100.00000, pencut  =   0.10000, tausw   =   0.10000

Extra-points options:
     frameon =       1, chngmask=       1

Ewald parameters:
     verbose =       0, ew_type =       0, nbflag  =       1, use_pme =       1
     vdwmeth =       1, eedmeth =       1, netfrc  =       1
     Box X =   85.326   Box Y =   85.326   Box Z =   85.326
     Alpha =  109.471   Beta  =  109.471   Gamma =  109.471
     NFFT1 =   96       NFFT2 =   96       NFFT3 =   96
     Cutoff=    8.000   Tol   =0.100E-04
     Ewald Coefficient =  0.34864
     Interpolation order =    4

    LOADING THE CONSTRAINED ATOMS AS GROUPS

   5.  REFERENCE ATOM COORDINATES

  default_name
     Mask :1-522 & !@H=; matches  4235 atoms

--------------------------------------------------------------------------------
   3.  ATOMIC COORDINATES AND VELOCITIES
--------------------------------------------------------------------------------

default_name
 begin time read from input coords =    20.000 ps

           Begin reading energy term weight changes/NMR restraints
 WEIGHT CHANGES:
                         ** No weight changes given **

 RESTRAINTS:
                          ** No restraint defined **

                  Done reading weight changes/NMR restraints

 Number of triangulated 3-point waters found:    13393

     Sum of charges from parm topology file =  -0.00092673
     Forcing neutrality...

--------------------------------------------------------------------------------
   4.  RESULTS
 NSTEP =        0   TIME(PS) =       0.000  TEMP(K) =     0.00  PRESS =     0.0
 Etot   =   -215250.2170  EKtot   =         0.0000  EPtot      =   -215250.2170
 BOND   =     61949.5624  ANGLE   =      4281.0681  DIHED      =      2990.2589
 UB     =         0.0000  IMP     =         0.0000  CMAP       =       412.8400
 1-4 NB =      1855.0033  1-4 EEL =     19560.1725  VDWAALS    =     50558.7306
 EELEC  =   -356857.8527  EHBOND  =         0.0000  RESTRAINT  =         0.0000
 EKCMT  =         0.0000  VIRIAL  =         0.0000  VOLUME     =    478207.5660
                                                    Density    =         1.0470
 ------------------------------------------------------------------------------

      A V E R A G E S   O V E R      20 S T E P S

 NSTEP =    20000   TIME(PS) =      20.000  TEMP(K) =   309.05  PRESS =     0.0
 Etot   =   -171534.5416  EKtot   =     44746.6752  EPtot      =   -216281.2168
 BOND   =     62393.8723  ANGLE   =      4386.8851  DIHED      =      3004.1844
 UB     =         0.0000  IMP     =         0.0000  CMAP       =       429.3043
 1-4 NB =      1888.9463  1-4 EEL =     19565.3411  VDWAALS    =     51281.4628
 EELEC  =   -359690.1192  EHBOND  =         0.0000  RESTRAINT  =       458.9061
 EAMBER (non-restraint)  =   -216740.1229
 EKCMT  =         0.0000  VIRIAL  =         0.0000  VOLUME     =    473865.5329
                                                    Density    =         1.0566
 ------------------------------------------------------------------------------

      R M S  F L U C T U A T I O N S

 NSTEP =    20000   TIME(PS) =      20.000  TEMP(K) =     5.23  PRESS =     0.0
 Etot   =      1572.4083  EKtot   =       757.8119  EPtot      =       897.5567
 BOND   =       282.5875  ANGLE   =        66.2745  DIHED      =        25.4214
 UB     =         0.0000  IMP     =         0.0000  CMAP       =         9.4096
 1-4 NB =        14.3658  1-4 EEL =        60.0406  VDWAALS    =       441.2379
 EELEC  =      1261.1506  EHBOND  =         0.0000  RESTRAINT  =        23.4983
 EAMBER (non-restraint)  =       874.0585
 EKCMT  =         0.0000  VIRIAL  =         0.0000  VOLUME     =      1802.3603
                                                    Density    =         0.0040
 ------------------------------------------------------------------------------
