-------------------------------------------------------
          Amber 20 PMEMD                              2020
          -------------------------------------------------------

  [-O]verwriting output

File Assignments:

 Here is the input file:

 MD simulations
&cntrl
 imin=0,           ! Perform MD (1=energy minimization)
 nstlim=500000    ! Number of MD steps
 ntx=5,            ! Both positions and velocities are read (1=only read positi
 irest=1,          ! Continue calculation (0=start a new calculation from stati
 ntc=2,            ! 2=SHAKE on for bonds with hydrogen (SHAKE restricts bond s
 dt=0.004,         ! Timestep (ps)
 ntb=1,            ! 2=Constant Pressure, default when ntp>0. Unit cell size ch
 igb=0,            !
 ntp=0,            ! 1=Isotropic pressure scaling (0=no scaling) (should be 1 o
 barostat=2        ! 1=Berendsen barostat, 2=montecarlo thermostat, p347 of 202
 taup=0.5          ! Pressure relaxtion time (ps)
 ntf=2,            ! No force evaluation for bonds with hydrogen (1=complete fo
 ntt=3,            ! Langevin thermostat (0=constant total energy, see p344 of
 gamma_ln=0.01       ! Collision Frequency for thermostat
 ig=-1,            ! Random number generator for thermostat (-1=based on curren
 temp0=310,         ! Simulation temperature (K)
 ntwx= 25000,       ! Write to trajectory file every ntwx steps
 ntpr= 5000,       ! Print to mdout every ntpr steps
 ntwr= 25000,       ! Write a restart file every ntwr steps
 cut=  8,        ! Nonbonded cutoff in Angstroms
 ntr=0,            ! Restraints OFF and next 2 lines are ineffective (1=on)
 restraintmask=":396>@8&!:WAT,Na+", ! atoms to be restrained (atoms 8A or more
 restraint_wt=10, ! force constant (Kcal/mol/A2) for restraint
 ntxo=2,           ! Write coordinate file in NetCDF format (1=ASCII format)
 ioutfm=1,         ! Write trajectory file in NetCDF format (0=ASCII format)
 iwrap=1,          ! iwrap is turned on (0=off)
 nmropt=0,         !
/
&wt type='END' /
DISANG=zinc.rst
LISTOUT=POUT

Note: ig = -1. Setting random seed to   152589 based on wallclock time in
      microseconds.

--------------------------------------------------------------------------------
   1.  RESOURCE   USE:
--------------------------------------------------------------------------------

 getting box info from netcdf restart file
 NATOM  =   57192 NTYPES =      34 NBONH =   40755 MBONA  =   16528
 NTHETH =    9475 MTHETA =    5853 NPHIH =   19321 MPHIA  =   18364
 NHPARM =       0 NPARM  =       0 NNB   =  131766 NRES   =   12722
 NBONA  =   16528 NTHETA =    5853 NPHIA =   18364 NUMBND =     100
 NUMANG =     217 NPTRA  =     210 NATYP =      57 NPHB   =       1
 IFBOX  =       2 NMXRS  =      63 IFCAP =       0 NEXTRA =   12198
 NCOPY  =       0

     BOX TYPE: TRUNCATED OCTAHEDRON

--------------------------------------------------------------------------------
   2.  CONTROL  DATA  FOR  THE  RUN
--------------------------------------------------------------------------------

default_name

General flags:
     imin    =       0, nmropt  =       0

Nature and format of input:
     ntx     =       5, irest   =       1, ntrx    =       1

Nature and format of output:
     ntxo    =       2, ntpr    =    5000, ntrx    =       1, ntwr    =   25000
     iwrap   =       1, ntwx    =   25000, ntwv    =       0, ntwe    =       0
     ioutfm  =       1, ntwprt  =       0, idecomp =       0, rbornstat=      0

Potential function:
     ntf     =       2, ntb     =       1, igb     =       0, nsnb    =      25
     ipol    =       0, gbsa    =       0, iesp    =       0
     dielc   =   1.00000, cut     =   8.00000, intdiel =   1.00000

Frozen or restrained atoms:
     ibelly  =       0, ntr     =       0

Molecular dynamics:
     nstlim  =    500000, nscm    =      1000, nrespa  =         1
     t       =   0.00000, dt      =   0.00400, vlimit  =  -1.00000

Langevin dynamics temperature regulation:
     ig      =  152589
     temp0   = 310.00000, tempi   =   0.00000, gamma_ln=   0.01000

SHAKE:
     ntc     =       2, jfastw  =       0
     tol     =   0.00001

Extra-points options:
     frameon =       1, chngmask=       1

Ewald parameters:
     verbose =       0, ew_type =       0, nbflag  =       1, use_pme =       1
     vdwmeth =       1, eedmeth =       1, netfrc  =       1
     Box X =   82.480   Box Y =   82.480   Box Z =   82.480
     Alpha =  109.471   Beta  =  109.471   Gamma =  109.471
     NFFT1 =   84       NFFT2 =   84       NFFT3 =   84
     Cutoff=    8.000   Tol   =0.100E-04
     Ewald Coefficient =  0.34864
     Interpolation order =    4

--------------------------------------------------------------------------------
   3.  ATOMIC COORDINATES AND VELOCITIES
--------------------------------------------------------------------------------

default_name
 begin time read from input coords =    20.000 ps

 Number of triangulated 3-point waters found:    12198

     Sum of charges from parm topology file =  -0.00093329
     Forcing neutrality...

--------------------------------------------------------------------------------
   4.  RESULTS
 NSTEP =     5000   TIME(PS) =      40.000  TEMP(K) =   293.82  PRESS =     0.0
 Etot   =   -141370.7138  EKtot   =     27508.3301  EPtot      =   -168879.0438
 BOND   =      1705.9076  ANGLE   =      4463.3222  DIHED      =      3185.4291
 UB     =         0.0000  IMP     =         0.0000  CMAP       =       447.7578
 1-4 NB =      1913.6359  1-4 EEL =     19569.3471  VDWAALS    =     16411.0778
 EELEC  =   -216575.5213  EHBOND  =         0.0000  RESTRAINT  =         0.0000
 ------------------------------------------------------------------------------

      A V E R A G E S   O V E R     100 S T E P S

 NSTEP =   500000   TIME(PS) =    2020.000  TEMP(K) =   309.28  PRESS =     0.0
 Etot   =   -137053.1365  EKtot   =     28956.2513  EPtot      =   -166009.3878
 BOND   =      1819.5502  ANGLE   =      4681.4128  DIHED      =      3085.8283
 UB     =         0.0000  IMP     =         0.0000  CMAP       =       412.6729
 1-4 NB =      1914.6902  1-4 EEL =     19558.8957  VDWAALS    =     15126.2934
 EELEC  =   -212608.7312  EHBOND  =         0.0000  RESTRAINT  =         0.0000
 ------------------------------------------------------------------------------

      R M S  F L U C T U A T I O N S

 NSTEP =   500000   TIME(PS) =    2020.000  TEMP(K) =     3.12  PRESS =     0.0
 Etot   =       805.6505  EKtot   =       291.9837  EPtot      =       543.1943
 BOND   =        40.0013  ANGLE   =        67.5467  DIHED      =        29.4576
 UB     =         0.0000  IMP     =         0.0000  CMAP       =        12.6289
 1-4 NB =        17.9978  1-4 EEL =        62.7117  VDWAALS    =       284.6757
 EELEC  =       745.3675  EHBOND  =         0.0000  RESTRAINT  =         0.0000
 ------------------------------------------------------------------------------
